LTspice 24.1.2 for Windows
Circuit: C:\Users\maxim\OneDrive - Linköpings universitet\Documents\LIU WORKSPACE\TNE087 Elektronikproduktion\Projekt\Simulation\Astable Clock.net
Start Time: Fri Feb 14 23:59:50 2025
solver = Normal
Maximum thread count: 16
tnom = 27
temp = 27
method = modified trap
Direct Newton iteration for .op point succeeded.
Total elapsed time: 0.108 seconds.

Files loaded:
C:\Users\maxim\OneDrive - Linköpings universitet\Documents\LIU WORKSPACE\TNE087 Elektronikproduktion\Projekt\Simulation\Astable Clock.net
C:\Users\maxim\AppData\Local\LTspice\lib\cmp\standard.bjt
C:\Users\maxim\OneDrive - Linköpings universitet\Documents\LIU WORKSPACE\TNE087 Elektronikproduktion\Projekt\Simulation\LM339.sub

