LTspice 24.1.2 for Windows
Circuit: C:\Users\maxim\OneDrive - Linköpings universitet\Documents\LIU WORKSPACE\TNE087 Elektronikproduktion\Projekt\Simulation\Monostable Clock.net
Start Time: Fri Feb 14 23:59:35 2025
solver = Normal
Maximum thread count: 16
tnom = 27
temp = 27
method = modified trap
Direct Newton iteration failed to find .op point.  (Use ".option noopiter" to skip.)
Starting Gmin stepping
Gmin = 10
Gmin = 1.07374
vernier = 0.5
vernier = 0.25
vernier = 0.125
vernier = 0.0625
Gmin = 0.995033
vernier = 0.03125
vernier = 0.015625
vernier = 0.0078125
vernier = 0.00390625
Gmin = 0.999816
vernier = 0.00195312
vernier = 0.000976562
vernier = 0.000488281
Gmin = 0.999693
vernier = 0.000651042
vernier = 0.000868055
Gmin = 0.99804
vernier = 0.00115741
Gmin = 0.995445
vernier = 0.00154321
vernier = 0.00205761
Gmin = 0.991103
vernier = 0.00274348
vernier = 0.00365797
Gmin = 0.984219
vernier = 0.0048773
Gmin = 0.973483
vernier = 0.00650306
vernier = 0.00867074
Gmin = 0.955727
vernier = 0.011561
vernier = 0.0154146
Gmin = 0.928094
vernier = 0.0205529
Gmin = 0.886248
vernier = 0.0274038
vernier = 0.0365384
Gmin = 0.820291
vernier = 0.0487178
vernier = 0.0649571
Gmin = 0.725325
vernier = 0.0866095
Gmin = 0.59804
vernier = 0.115479
vernier = 0.153972
Gmin = 0.433464
vernier = 0.205296
vernier = 0.273728
Gmin = 0.260755
vernier = 0.364971
Gmin = 0.118499
vernier = 0.486628
vernier = 0.648837
Gmin = 0.0326151
vernier = 0.865116
vernier = 1
Gmin = 0.00477343
Gmin = 0.000512543
Gmin = 5.50339e-05
Gmin = 5.90922e-06
Gmin = 6.34497e-07
Gmin = 6.81286e-08
Gmin = 7.31526e-09
Gmin = 7.8547e-10
Gmin = 8.43392e-11
Gmin = 9.05585e-12
Gmin = 9.72364e-13
Gmin = 1.04407e-13
Gmin = 0
Gmin stepping succeeded in finding the operating point.

Total elapsed time: 0.496 seconds.

Files loaded:
C:\Users\maxim\OneDrive - Linköpings universitet\Documents\LIU WORKSPACE\TNE087 Elektronikproduktion\Projekt\Simulation\Monostable Clock.net
C:\Users\maxim\AppData\Local\LTspice\lib\cmp\standard.bjt
C:\Users\maxim\OneDrive - Linköpings universitet\Documents\LIU WORKSPACE\TNE087 Elektronikproduktion\Projekt\Simulation\LM339.sub

