LTspice 24.1.2 for Windows
Circuit: C:\Users\maxim\OneDrive - Linköpings universitet\Documents\LIU WORKSPACE\TNE087 Elektronikproduktion\Projekt\Simulation\Sensor.net
Start Time: Sat Feb 15 00:45:11 2025
solver = Normal
Maximum thread count: 16
tnom = 27
temp = 27
method = modified trap
Direct Newton iteration for .op point succeeded.
Total elapsed time: 0.047 seconds.

Files loaded:
C:\Users\maxim\OneDrive - Linköpings universitet\Documents\LIU WORKSPACE\TNE087 Elektronikproduktion\Projekt\Simulation\Sensor.net
C:\Users\maxim\AppData\Local\LTspice\lib\cmp\standard.bjt

